powerflow/autotest/test_multi_island_fix.glm
//4-node-esque system to test multiple islands/solutions approach
//Simple test for multi-islanding capability
//Three systems, two with islanding capability, one that should be removed
//Event-mode test

clock {
	timezone EST+5EDT;
	starttime '2000-01-01 0:00:00';
	stoptime '2000-01-01 0:01:00';
}

module assert;
module tape;
module powerflow {
	solver_method NR;
	line_limits false;
}
module reliability {
	report_event_log false;
}

object overhead_line_conductor {
	name olc100;
	geometric_mean_radius 0.0244 ft;
	resistance 0.306 Ohm/mile;
}

object overhead_line_conductor {
	name olc101;
	geometric_mean_radius 0.00814 ft;
	resistance 0.592 Ohm/mile;
}

object line_spacing {
	name ls200;
	distance_AB 2.5 ft;
	distance_BC 4.5 ft;
	distance_AC 7.0 ft;
	distance_AN 5.656854 ft; 
	distance_BN 4.272002 ft;
	distance_CN 5.0 ft;
}

object line_configuration {
	name lc300;
	conductor_A olc100;
	conductor_B olc100;
	conductor_C olc100;
	conductor_N olc101;
	spacing ls200;
}

object transformer_configuration {
	name tc400;
	connect_type WYE_WYE;
	power_rating 6000;
	primary_voltage 12470;
	secondary_voltage 4160;
	resistance 0.01;
	reactance 0.06;
}

//Fault check option
object fault_check {
	name base_fault_check_object;
	check_mode ONCHANGE;
	strictly_radial false;
	eventgen_object testgendev;
	grid_association true;	//Flag to ensure non-monolithic islands
}

//Manual object - open the "tie switches"
object eventgen {
	name testgendev;
	fault_type "SW-ABC";     //Type of fault for the object to induce
	manual_outages "switch3_3B,2000-01-01 00:00:05,2000-01-01 00:00:30";
}

object eventgen {
	name testgendev_B;
	fault_type "SW-ABC";     //Type of fault for the object to induce
	manual_outages "switch2B_2C,2000-01-01 00:00:04,2000-01-01 00:00:35";
}

//Switches, that would presumably make this three systems, eventually
object switch {
	name switch3_3B;
	phases ABCN;
	from node3;
	to node3B;
	status CLOSED;
}

object switch {
	name switch2B_2C;
	phases ABCN;
	from node2B;
	to node2C;
	status CLOSED;
}

//First system
object node {
	name node1;
	phases "ABCN";
	bustype SWING;
	nominal_voltage 7199.558;
}

object overhead_line {
	name ol12;
	phases "ABCN";
	from node1;
	to node2;
	length 2000;
	configuration lc300;
}

object node {
	name node2;
	phases "ABCN";
	nominal_voltage 7199.558;
}

object transformer {
	name tran23;
	phases "ABCN";
	from node2;
	to node3;
	configuration tc400;
}

object node {
	name node3;
	phases "ABCN";
	nominal_voltage 2401.777;
}

object overhead_line {
	name ol34;
	phases "ABCN";
	from node3;
	to load4;
	length 2500;
	configuration lc300;
}

object load {
	name load4;
	phases "ABCN";
	constant_power_A +1275000.000+790174.031j;
	constant_power_B +1800000.000+871779.789j;
	constant_power_C +2375000.000+780624.750j;
	nominal_voltage 2401.777;
	// object recorder {
		// property "voltage_A,voltage_B,voltage_C";
		// interval -1;
		// file load4out.csv;
	// };
	object complex_assert {
	  parent "load4";
	  name "load4_complex_assert_0";
		target voltage_A;
		within 0.05;
		object player {
		  parent "load4_complex_assert_0";
			property value;
			file ../data_multi_load4_phaseA.csv;
		};
	};
	object complex_assert {
	  parent "load4";
	  name "load4_complex_assert_1";
		target voltage_B;
		within 0.05;
		object player {
		  parent "load4_complex_assert_1";
			property value;
			file ../data_multi_load4_phaseB.csv;
		};
	};
	object complex_assert {
	  parent "load4";
	  name "load4_complex_assert_2";
		target voltage_C;
		within 0.05;
		object player {
		  parent "load4_complex_assert_2";
			property value;
			file ../data_multi_load4_phaseC.csv;
		};
	};
}

//Duplicate B
object node {
	name node1B;
	phases "ABCN";
	bustype SWING;
	nominal_voltage 7199.558;
}

object overhead_line {
	name ol12B;
	phases "ABCN";
	from node1B;
	to node2B;
	length 2000;
	configuration lc300;
}

object node {
	name node2B;
	phases "ABCN";
	nominal_voltage 7199.558;
}

object transformer {
	name tran23B;
	phases "ABCN";
	from node2B;
	to node3B;
	configuration tc400;
}

object node {
	name node3B;
	phases "ABCN";
	nominal_voltage 2401.777;
}

object overhead_line {
	name ol34B;
	phases "ABCN";
	from node3B;
	to load4B;
	length 2500;
	configuration lc300;
}

object load {
	name load4B;
	phases "ABCN";
	constant_power_A +1075000.000+790174.031j;
	constant_power_B +1800500.000+871779.789j;
	constant_power_C +2075000.000+780624.750j;
	nominal_voltage 2401.777;
	// object recorder {
		// property "voltage_A,voltage_B,voltage_C";
		// interval -1;
		// file load4Bout.csv;
	// };
	object complex_assert {
	  parent "load4B";
	  name "load4B_complex_assert_0";
		target voltage_A;
		within 0.05;
		object player {
		  parent "load4B_complex_assert_0";
			property value;
			file ../data_multi_load4B_phaseA.csv;
		};
	};
	object complex_assert {
	  parent "load4B";
	  name "load4B_complex_assert_1";
		target voltage_B;
		within 0.05;
		object player {
		  parent "load4B_complex_assert_1";
			property value;
			file ../data_multi_load4B_phaseB.csv;
		};
	};
	object complex_assert {
	  parent "load4B";
	  name "load4B_complex_assert_2";
		target voltage_C;
		within 0.05;
		object player {
		  parent "load4B_complex_assert_2";
			property value;
			file ../data_multi_load4B_phaseC.csv;
		};
	};
}


//Duplicate C -- No swing here, so it should get removed
object node {
	name node1C;
	phases "ABCN";
	//bustype SWING;
	nominal_voltage 7199.558;
}

object overhead_line {
	name ol12C;
	phases "ABCN";
	from node1C;
	to node2C;
	length 2000;
	configuration lc300;
}

object node {
	name node2C;
	phases "ABCN";
	nominal_voltage 7199.558;
}

object transformer {
	name tran23C;
	phases "ABCN";
	from node2C;
	to node3C;
	configuration tc400;
}

object node {
	name node3C;
	phases "ABCN";
	nominal_voltage 2401.777;
}

object overhead_line {
	name ol34C;
	phases "ABCN";
	from node3C;
	to load4C;
	length 2500;
	configuration lc300;
}

object load {
	name load4C;
	phases "ABCN";
	constant_power_A +875000.000+790174.031j;
	constant_power_B +801000.000+871779.789j;
	constant_power_C +1605000.000+780624.750j;
	nominal_voltage 2401.777;
	// object recorder {
		// property "voltage_A,voltage_B,voltage_C";
		// interval -1;
		// file load4Cout.csv;
	// };
	object complex_assert {
	  parent "load4C";
	  name "load4C_complex_assert_0";
		target voltage_A;
		within 0.05;
		object player {
		  parent "load4C_complex_assert_0";
			property value;
			file ../data_multi_load4C_phaseA.csv;
		};
	};
	object complex_assert {
	  parent "load4C";
	  name "load4C_complex_assert_1";
		target voltage_B;
		within 0.05;
		object player {
		  parent "load4C_complex_assert_1";
			property value;
			file ../data_multi_load4C_phaseB.csv;
		};
	};
	object complex_assert {
	  parent "load4C";
	  name "load4C_complex_assert_2";
		target voltage_C;
		within 0.05;
		object player {
		  parent "load4C_complex_assert_2";
			property value;
			file ../data_multi_load4C_phaseC.csv;
		};
	};
}